/*--------------------------------*- C++ -*----------------------------------*\
| =========                 |                                                 |
| \\      /  F ield         | OpenFOAM: The Open Source CFD Toolbox           |
|  \\    /   O peration     | Version:  v2306                                 |
|   \\  /    A nd           | Website:  www.openfoam.com                      |
|    \\/     M anipulation  |                                                 |
\*---------------------------------------------------------------------------*/
FoamFile
{
    version     2.0;
    format      ascii;
    class       dictionary;
    object      blockMeshDict;
}
// * * * * * * * * * * * * * * * * * * * * * * * * * * * * * * * * * * * * * //

scale   1;

vertices
(
    (-5 -4 -0.5)
    (15 -4 -0.5)
    (15  4 -0.5)
    (-5  4 -0.5)
    (-5 -4  0.5)
    (15 -4  0.5)
    (15  4  0.5)
    (-5  4  0.5)
);

blocks
(
    hex (0 1 2 3 4 5 6 7) (20 8 1) simpleGrading (1 1 1)
);

edges
(
);

boundary
(
    front
    {
        type patch;
        inGroups (frontAndBack);
        faces
        (
            (4 5 6 7)
        );
    }
    back
    {
        type patch;
        inGroups (frontAndBack);
        faces
        (
            (3 2 1 0)
        );
    }
    inlet
    {
        type patch;
        faces
        (
            (0 4 7 3)
        );
    }
    outlet
    {
        type patch;
        faces
        (
            (2 6 5 1)
        );
    }
    lowerWall
    {
        type patch;
        faces
        (
            (0 1 5 4)
        );
    }
    upperWall
    {
        type patch;
        faces
        (
            (2 3 7 6)
        );
    }
);


// ************************************************************************* //
