/*--------------------------------*- C++ -*----------------------------------*\
| =========                 |                                                 |
| \\      /  F ield         | OpenFOAM: The Open Source CFD Toolbox           |
|  \\    /   O peration     | Version:  v2306                                 |
|   \\  /    A nd           | Website:  www.openfoam.com                      |
|    \\/     M anipulation  |                                                 |
\*---------------------------------------------------------------------------*/
FoamFile
{
    version     2.0;
    format      ascii;
    class       volScalarField;
    object      p;
}
// * * * * * * * * * * * * * * * * * * * * * * * * * * * * * * * * * * * * * //

#include        "include/initialConditions"

dimensions      [0 2 -2 0 0 0 0];

internalField   uniform $pressure;

boundaryField
{
    #includeEtc "caseDicts/setConstraintTypes"

    inlet
    {
        type            outletInlet;
        outletValue     $internalField;
        value           $internalField;
    }

    lowerWall
    {
        type            outletInlet;
        outletValue     $internalField;
        value           $internalField;
    }

    outlet
    {
        type            outletInlet;
        outletValue     $internalField;
        value           $internalField;
    }

    upperWall
    {
        type            outletInlet;
        outletValue     $internalField;
        value           $internalField;
    }

    wings
    {
        type            zeroGradient;
    }

    #include "include/frontBackUpperPatches"
}


// ************************************************************************* //
