/*--------------------------------*- C++ -*----------------------------------*\
| =========                 |                                                 |
| \\      /  F ield         | OpenFOAM: The Open Source CFD Toolbox           |
|  \\    /   O peration     | Version:  v2306                                 |
|   \\  /    A nd           | Website:  www.openfoam.com                      |
|    \\/     M anipulation  |                                                 |
\*---------------------------------------------------------------------------*/
FoamFile
{
    version     2.0;
    format      ascii;
    class       volVectorField;
    object      U;
}
// * * * * * * * * * * * * * * * * * * * * * * * * * * * * * * * * * * * * * //

#include        "include/initialConditions"

dimensions      [0 1 -1 0 0 0 0];

internalField   uniform $flowVelocity;

boundary        uniform $flowVelocity;

boundaryField
{
    #includeEtc "caseDicts/setConstraintTypes"

    inlet
    {
        //type            inletOutlet;
        //inletValue      $boundary;
        type              fixedValue;
        value             $internalField;
    }

    lowerWall
    {
        type            inletOutlet;
        inletValue      $boundary;
        value           $internalField;
    }

    outlet
    {
        type            inletOutlet;
        inletValue      $boundary;
        value           $internalField;
    }

    upperWall
    {
        type            inletOutlet;
        inletValue      $boundary;
        value           $internalField;
    }

    wings
    {
        type            noSlip;
    }

    #include "include/frontBackUpperPatches"
}


// ************************************************************************* //
